&nhyd_model
   config_init_case = 2
   config_theta_adv_order = 3
   config_num_mgslevels = 1
/

&dimensions
   config_nvertlevels     = 41
/

&io
   config_input_name         = 'MG_nr5_grid.nc'
   config_output_name        = 'nr5_init.nc'
/

&decomposition
   config_block_decomp_file_prefix = 'nr5.graph.info.part.'
/
